Version 4
SHEET 1 2004 680
WIRE 160 -160 -176 -160
WIRE 240 -160 240 -192
WIRE 240 -160 160 -160
WIRE 240 -144 240 -160
WIRE 160 -128 160 -160
WIRE -176 -16 -176 -160
WIRE 240 16 240 -64
WIRE 336 16 240 16
WIRE 448 16 336 16
WIRE 592 16 528 16
WIRE 240 48 240 16
WIRE 592 48 592 16
WIRE 1488 96 1456 96
WIRE 1632 96 1568 96
WIRE 1760 96 1712 96
WIRE 1872 96 1840 96
WIRE 1984 96 1936 96
WIRE 320 128 288 128
WIRE 400 128 320 128
WIRE 592 128 592 112
WIRE 592 128 480 128
WIRE 656 128 592 128
WIRE 752 128 736 128
WIRE 784 128 752 128
WIRE 592 144 592 128
WIRE 1136 160 1008 160
WIRE 1408 160 1408 96
WIRE 1408 160 1216 160
WIRE 1456 160 1456 96
WIRE 1456 160 1408 160
WIRE 1408 192 1408 160
WIRE 752 224 752 128
WIRE 592 240 592 208
WIRE 752 352 752 304
FLAG 240 -192 power
FLAG 240 144 0
FLAG 592 240 0
FLAG -176 64 0
FLAG 752 352 0
FLAG 784 128 Bias
FLAG 1984 96 0
FLAG 320 128 gate
FLAG 1408 96 ant_base
FLAG 1408 256 0
FLAG 336 16 drain
FLAG 1008 160 drain
FLAG 160 -64 0
SYMBOL nmos 288 48 M0
SYMATTR InstName M1
SYMATTR Value IPP600N25N3
SYMBOL ind 432 32 R270
WINDOW 0 32 56 VTop 2
WINDOW 3 5 56 VBottom 2
SYMATTR InstName L1
SYMATTR Value 2.65µ
SYMATTR SpiceLine Rser=150m
SYMBOL cap 576 48 R0
SYMATTR InstName C1
SYMATTR Value 100p
SYMBOL voltage -176 -32 R0
WINDOW 123 0 0 Left 0
WINDOW 39 24 124 Left 2
SYMATTR SpiceLine Rser=200m
SYMATTR InstName V1
SYMATTR Value 25
SYMBOL voltage 752 208 R0
WINDOW 123 0 0 Left 0
WINDOW 39 24 124 Left 2
SYMATTR SpiceLine Rser=.1 Cpar=100u
SYMATTR InstName V2
SYMATTR Value 4.5
SYMBOL cap 576 144 R0
SYMATTR InstName C2
SYMATTR Value 4.7n
SYMATTR SpiceLine Rser=.01
SYMBOL res 752 112 R90
WINDOW 0 0 56 VBottom 2
WINDOW 3 32 56 VTop 2
SYMATTR InstName R1
SYMATTR Value 2k
SYMBOL cap 1936 80 R90
WINDOW 0 -16 30 VBottom 2
WINDOW 3 32 32 VTop 2
SYMATTR InstName C_ant
SYMATTR Value 4.5p
SYMBOL res 1744 112 R270
WINDOW 0 32 56 VTop 2
WINDOW 3 -24 71 VBottom 2
SYMATTR InstName R_ant
SYMATTR Value 100
SYMBOL ind 1728 80 R90
WINDOW 0 5 56 VBottom 2
WINDOW 3 51 57 VTop 2
SYMATTR InstName L_ant
SYMATTR Value 55µ
SYMBOL cap 1392 192 R0
SYMATTR InstName c_t
SYMATTR Value 130p
SYMBOL ind 1120 176 R270
WINDOW 0 32 56 VTop 2
WINDOW 3 5 56 VBottom 2
SYMATTR InstName L_m
SYMATTR Value 1.25µ
SYMBOL ind 1472 112 R270
WINDOW 0 32 56 VTop 2
WINDOW 3 5 56 VBottom 2
SYMATTR InstName L_short
SYMATTR Value -3.15µ
SYMBOL ind 224 -160 R0
SYMATTR InstName L4
SYMATTR Value 10µ
SYMATTR SpiceLine Rser=10m
SYMBOL cap 144 -128 R0
WINDOW 3 31 47 Left 2
SYMATTR Value 47n
SYMATTR InstName C6
SYMBOL res 496 112 R90
WINDOW 0 0 56 VBottom 2
WINDOW 3 32 56 VTop 2
SYMATTR InstName R3
SYMATTR Value 1m
TEXT -176 320 Left 2 !.tran 0 0.01 0.0002 .001 startup
TEXT 48 152 Left 2 ;Cout: 152pF
TEXT 272 -160 Left 2 ;v----  ~30 ohm
